elements
O N He H Ar
end

species
O O2 N2 N H He Ar
end